LAMMPS (6 Apr 2015-ICMS)

units 		real
atom_style 	hybrid sphere dipole molecular

# this is equivalent to special_bonds amber,
# but also compatible with the per-style overrides below.
special_bonds lj 0.0 1.0e-100 0.5 coul 0.0 1.0e-100 0.8333333333333333

pair_style 	hybrid  lj/sf/dipole/sf 12.0 lj/sf/dipole/sf 12.0 			lj/charmm/coul/long 11.0 12.0
pair_modify 	mix arithmetic
pair_modify	pair lj/sf/dipole/sf 1 special lj/coul 0.0 1.0 1.0
pair_modify	pair lj/sf/dipole/sf 2 special lj/coul 0.0 1.0 1.0

kspace_style 	pppm/cg 1.0e-5
bond_style 	harmonic
angle_style 	harmonic
dihedral_style 	harmonic

read_data data.bnzwbox
  orthogonal box = (-11.3621 -13.9039 -13.1983) to (18.0429 16.0051 16.7857)
  reading atoms ...
  587 atoms
  scanning bonds ...
  scanning angles ...
  scanning dihedrals ...
  reading bonds ...
  12 bonds
  reading angles ...
  18 angles
  reading dihedrals ...
  30 dihedrals

# pair_coeffs:
pair_coeff 1 1 lj/charmm/coul/long        0.0860 3.39967 0.0860 3.39967      # AA-AA
pair_coeff 2 2 lj/charmm/coul/long        0.015000 2.59964 0.015000 2.59964  # AA-AA
pair_coeff 3 3 lj/sf/dipole/sf       1    0.550000 3.050000                  # CG-CG, this will be propagated with the longer timestep
pair_coeff 1 2 lj/charmm/coul/long        0.0359 2.9997 0.0359 2.9997        # AA-AA
pair_coeff 1 3 lj/sf/dipole/sf       2    0.2175 3.2248                      # CG-AA, this will be propagated with the shorter timestep
pair_coeff 2 3 lj/sf/dipole/sf       2    0.0908 2.8248                      # CG-AA, this will be propagated with the shorter timestep

# this will set individual per-atom masses - as required by
# atom style sphere - to the same value as the per-type masses.
set type 1 mass 12.011000
  6 settings made for mass
set type 2 mass 1.008000
  6 settings made for mass
set type 3 mass 40.00
  575 settings made for mass

group 	solute 	molecule 1
12 atoms in group solute
group 	water 	molecule > 1
575 atoms in group water

set group solute diameter 0.0
  12 settings made for diameter

neighbor 2.0 bin
neigh_modify every 1 delay 0 check yes

#timestep 8
#run_style respa 2 4 hybrid 2 1 1 kspace 1 improper 2

timestep 2.0
run_style verlet

fix 	integrateSolute	solute nve
fix	integrateWater	water nve/sphere update dipole

fix	thermostatWater  water  langevin 298 298 100 9 omega yes zero yes
fix	thermostatSolute solute langevin 298 298 100 9 zero yes

thermo 100

minimize 1.0E-4 1.0E-6 100 1000
PPPM initialization ...
  G vector (1/distance) = 0.107059
  grid = 3 3 3
  stencil order = 5
  estimated absolute RMS force accuracy = 0.00268661
  estimated relative force accuracy = 8.09066e-06
  3d grid and FFT values/proc = 512 27
  4 neighbor list requests
  update every 1 steps, delay 0 steps, check yes
  PPPM/cg optimization cutoff: 1e-05
  Total charged atoms: 2.0%
  Min/max charged atoms/proc: 2.0% 2.0%
Step Temp E_pair E_mol TotEng Press
0            0    1229.2095   0.19819566    1229.4077    33888.578
Loop time of 1.24367 on 1 procs for 100 steps with 587 atoms

Minimization stats:
  Stopping criterion = max iterations
  Energy initial, next-to-last, final =
  Force two-norm initial, final = 1311.12 92.7793
  Force max component initial, final = 529.28 52.5897
  Final line search alpha, max atom move = 0.00240725 0.126597
  Iterations, force evaluations = 100 181

run 1000
PPPM initialization ...
  G vector (1/distance) = 0.107059
  grid = 3 3 3
  stencil order = 5
  estimated absolute RMS force accuracy = 0.00268661
  estimated relative force accuracy = 8.09066e-06
  3d grid and FFT values/proc = 512 27
Step Temp E_pair E_mol TotEng Press
100            0    -2841.678    2.1349864    -2839.543    1363.0469
Averages over the last 6 of 11 rows, steps 600 to 1100:
Temp E_pair E_mol TotEng Press
305.765 -3446.24 12.8873 -2899.26 618.539
Loop time of 5.87081 on 1 procs for 1000 steps with 587 atoms
